*LTspice
*
*AL8860
*Led driver. XP-E BLUE
*AE01003860
*
*netlist
.include AL8860_XPE_BLUE.cir
*
*params
*
.param VSOURCE=30
.param VPUL=5
.param RSENSE1=0.3
.param RSENSE2=0.3
.param RCTRL=1K
*
.param FREQ=1000
.param PERCENT=20
.param DELAY=0
.param REPEAT=2
.param TR=50n
.param TF=50n
*
.param CYCLE=1/FREQ
.param X_BASE=(CYCLE*REPEAT)+DELAY
.param DUTY=(PERCENT/100)*CYCLE
*
*transient response
.tran 0 {X_BASE} 0 ;startup
*
.backanno
